Andes_118_power_flow_test/118_converted_psse_out.txt
ANDES 1.9.3
Copyright (C) 2015-2022 Hantao Cui

ANDES comes with ABSOLUTELY NO WARRANTY
Case file: 118_converted_psse.xlsx
Report time: 12/12/2025 05:49:46 PM

Power flow converged in 4 iterations.
Flat-start: No

Statistics:
Buses                            118
Generators                        54
Committed Gens                    54
Loads                             91
Shunts                            14
Lines                            179
Transformers                       0
Areas                              1

EXTENDED SUMMARY:
                              P (pu)            Q (pu)

Generation                    37.992            7.6132
Load                           36.68             14.38

BUS DATA:
                            Bus Name            Vm(pu)          Va(rad.)

1                           RIVERSDE             0.955           0.19298
2                            POKAGON           0.97139           0.20238
3                           HICKRYCK           0.96699           0.20864
4                           NWCARLSL             0.998           0.27367
5                              OLIVE           0.99909           0.28214
6                           KANKAKEE              0.99           0.23359
7                           JACKSNRD           0.98933           0.22577
8                              OLIVE             1.015           0.37159
9                            BEQUINE            1.0429            0.4982
10                             BREED              1.05           0.63051
11                          SOUTHBND           0.98456           0.22864
12                          TWINBRCH              0.99           0.21941
13                           CONCORD           0.96788           0.20437
14                          GOSHENJT           0.98359           0.20667
15                           FTWAYNE              0.97           0.20088
16                             N_ E_           0.98257           0.21423
17                          SORENSON           0.99094           0.24614
18                          MCKINLEY             0.973           0.20626
19                           LINCOLN             0.962           0.19809
20                             ADAMS           0.95695           0.21328
21                               JAY           0.95775            0.2409
22                          RANDOLPH           0.96904           0.28538
23                          COLLCRNR           0.99948           0.37106
24                           TRENTON             0.992           0.36862
25                          TANNRSCK              1.05           0.49201
26                          TANNRSCK             1.015           0.52433
27                           MADISON             0.968           0.27266
28                            MULLIN           0.96157           0.24258
29                             GRANT           0.96322           0.22527
30                          SORENSON            1.0085            0.3358
31                           DEERCRK             0.967           0.22732
32                          DELAWARE             0.963            0.2632
33                          HAVILAND           0.96887           0.19056
34                          ROCKHILL             0.984           0.20153
35                          WESTLIMA           0.97971           0.19379
36                          STERLING              0.98           0.19361
37                          EASTLIMA           0.98631           0.21067
38                          EASTLIMA            1.0013           0.30283
39                          NWLIBRTY           0.96835            0.1506
40                          WEST END              0.97           0.13138
41                          S_TIFFIN           0.96683            0.1238
42                            HOWARD             0.985           0.15223
43                          S_KENTON           0.97708           0.20109
44                          WMVERNON           0.98437           0.24508
45                          N_NEWARK           0.98633           0.27725
46                          W_LANCST             1.005           0.32625
47                          CROOKSVL            1.0171           0.36497
48                          ZANESVLL            1.0206           0.35168
49                             PHILO             1.025           0.36925
50                          WCAMBRDG            1.0012           0.33518
51                          NEWCMRST           0.96708           0.29124
52                          SCOSHOCT           0.95703           0.27499
53                           WOOSTER           0.94609           0.25903
54                            TORREY             0.955           0.27572
55                          WAGENHLS             0.952           0.27067
56                          SUNNYSDE             0.954           0.27494
57                          WNWPHIL1           0.97071           0.29381
58                          WNWPHIL2           0.95917           0.27914
59                              TIDD             0.985            0.3339
60                          SWKAMMER           0.99314           0.40235
61                          W_KAMMER             0.995           0.41799
62                           NATRIUM             0.998           0.40773
63                              TIDD           0.99239           0.39531
64                            KAMMER           0.99821           0.42647
65                          MUSKNGUM             1.005           0.48288
66                          MUSKNGUM              1.05           0.48102
67                          SUMMERFL            1.0196            0.4338
68                             SPORN            1.0123           0.47999
69                             SPORN             1.035            0.5236
70                          PORTSMTH             0.984            0.3945
71                          NPORTSMT           0.98684           0.38736
72                          HILLSBRO              0.98           0.36835
73                          SARGENTS             0.991           0.38367
74                          BELLEFNT             0.958           0.37769
75                          STHPOINT           0.96732           0.39964
76                            DARRAH             0.943           0.37948
77                            TURNER             1.006           0.46533
78                          CHEMICAL            1.0034           0.45996
79                          CAPITLHL            1.0092           0.46505
80                          CABINCRK              1.04           0.50387
81                           KANAWHA             1.028           0.48775
82                             LOGAN           0.98854            0.4742
83                            SPRIGG           0.98438           0.49499
84                          BETSYLNE            0.9797           0.53923
85                          BEAVERCK             0.985           0.56636
86                            HAZARD           0.98669           0.54246
87                          PINEVLLE             1.015           0.54699
88                           FREMONT           0.98745           0.62105
89                          CLINCHRV             1.005           0.69187
90                           HOLSTON             0.985           0.58012
91                          HOLSTONT              0.98           0.58029
92                          SALTVLLE              0.99           0.58948
93                          TAZEWELL           0.98543           0.53654
94                          SWITCHBK           0.98983            0.4987
95                          CALDWELL           0.98033           0.48172
96                          BAILEYSV           0.99228            0.4788
97                           SUNDIAL            1.0112           0.48522
98                           BRADLEY            1.0235           0.47676
99                            HINTON              1.01           0.47042
100                         GLEN LYN             1.017           0.48778
101                            WYTHE           0.99142           0.51553
102                           SMYTHE           0.98913           0.56301
103                          CLAYTOR              1.01           0.42249
104                          HANCOCK             0.971           0.37763
105                          ROANOKE             0.965           0.35836
106                         CLOVERDL           0.96115           0.35382
107                          REUSENS             0.952           0.30494
108                           BLAINE           0.96621           0.33741
109                         FRANKLIN           0.96703           0.32951
110                         FIELDALE             0.973           0.31473
111                         DANRIVER              0.98           0.34345
112                         DANVILLE             0.975           0.26064
113                         DEER CRK             0.993           0.24479
114                         WMEDFORD           0.96009           0.25735
115                          MEDFORD           0.96002           0.25721
116                         KYGERCRK             1.005           0.47322
117                            COREY           0.97382           0.19251
118                         WHUNTNGD           0.94943            0.3822

LINE DATA:
                           Line Name     Fr. Bus (idx)      To Bus (idx)       P From (pu)       Q From (pu)         P To (pu)         Q To (pu)

Line_1                        Line_1                 1                 2          -0.12333          -0.13048            0.1243           0.11013
Line_2                        Line_2                 1                 3          -0.38667          -0.15465           0.38911           0.15265
Line_3                        Line_3                 2                12           -0.3243          -0.20013           0.32712            0.1943
Line_4                        Line_4                 3                 5          -0.68167          -0.12441           0.69396           0.15206
Line_5                        Line_5                 3                12         -0.097435          -0.12823          0.098545          0.093023
Line_6                        Line_6                 4                 5           -1.0368           0.09615            1.0388         -0.089555
Line_7                        Line_7                 4                11           0.64684            0.0042          -0.63806         0.0075359
Line_8                        Line_8                 5                 6           0.88766         -0.013019          -0.87827          0.041543
Line_9                        Line_9                 8                 5            3.3927           0.75676           -3.3927           -0.4436
Line_10                      Line_10                 5                11           0.77235        -0.0051494          -0.76022          0.028809
Line_11                      Line_11                 6                 7           0.35827         -0.048357          -0.35766          0.045738
Line_12                      Line_12                 7                12           0.16766         -0.065738          -0.16738          0.058285
Line_13                      Line_13                 8                 9           -4.4063          -0.89733            4.4525           0.24429
Line_14                      Line_14                 8                30           0.73362          -0.18448          -0.73134          -0.31505
Line_15                      Line_15                 9                10           -4.4525          -0.24429               4.5          -0.51042
Line_16                      Line_16                11                12           0.34512          -0.37823          -0.34352            0.3786
Line_17                      Line_17                11                13           0.35315           0.11188          -0.34995          -0.11926
Line_18                      Line_18                12                14           0.18586          0.025478          -0.18508         -0.040585
Line_19                      Line_19                12                16          0.077846          0.058126         -0.077613         -0.078027
Line_20                      Line_20                12               117           0.20153          0.051973              -0.2             -0.08
Line_21                      Line_21                13                15         0.0099542         -0.040744         -0.009936         -0.018043
Line_22                      Line_22                14                15          0.045078          0.030585         -0.044768         -0.077468
Line_23                      Line_23                15                17           -1.0345          -0.15068            1.0498           0.15848
Line_24                      Line_24                15                19           0.11534           0.15716          -0.11484          -0.16494
Line_25                      Line_25                15                33          0.073863         -0.028399         -0.073636       -0.00087356
Line_26                      Line_26                16                17          -0.17239         -0.021973           0.17378         -0.017858
Line_27                      Line_27                17                18           0.80302           0.16526          -0.79457           -0.1431
Line_28                      Line_28                30                17            2.3063           0.56104           -2.3063          -0.34614
Line_29                      Line_29                17                31           0.14814          0.088352          -0.14652          -0.12125
Line_30                      Line_30                17               113          0.021595           -0.0781          -0.02154          0.070726
Line_31                      Line_31                18                19           0.19457           0.16816          -0.19377          -0.17531
Line_32                      Line_32                19                20          -0.10547          0.051365           0.10589         -0.076855
Line_33                      Line_33                19                34         -0.035924          -0.10397          0.036482          0.045962
Line_34                      Line_34                20                21          -0.28589          0.046855           0.28759         -0.058776
Line_35                      Line_35                21                22          -0.42759         -0.021224           0.43175          0.017735
Line_36                      Line_36                22                23          -0.53175         -0.067735           0.54214          0.076868
Line_37                      Line_37                23                24          0.084517           0.10391         -0.084197          -0.15211
Line_38                      Line_38                23                25           -1.6254          -0.26157            1.6674           0.38617
Line_39                      Line_39                23                32           0.92871          0.050795          -0.90096         -0.062843
Line_40                      Line_40                24                70         -0.061285         -0.029768          0.061294         -0.068036
Line_41                      Line_41                24                72          0.015482          0.032869         -0.015309         -0.079622
Line_42                      Line_42                26                25           0.90177           -0.9154          -0.90177           0.97662
Line_43                      Line_43                25                27            1.4344           0.30054           -1.3705          -0.15284
Line_44                      Line_44                26                30            2.2382          -0.38855           -2.1993          -0.12225
Line_45                      Line_45                27                28           0.32843        -0.0058591          -0.32623        -0.0044025
Line_46                      Line_46                27                32           0.12498          0.017728          -0.12458         -0.034366
Line_47                      Line_47                27               115           0.20708          0.050635          -0.20627         -0.065287
Line_48                      Line_48                28                29           0.15623         -0.065598          -0.15553          0.046347
Line_49                      Line_49                29                31         -0.084474         -0.086347          0.084636          0.079114
Line_50                      Line_50                30                38           0.62438          -0.12374          -0.62257          -0.28132
Line_51                      Line_51                31                32          -0.29812           0.12381           0.30154          -0.13589
Line_52                      Line_52                32               113          0.040133           -0.1777          -0.03846           0.13366
Line_53                      Line_53                32               114          0.093871          0.017743         -0.093733         -0.032171
Line_54                      Line_54                33                37          -0.15636         -0.089126           0.15767          0.058627
Line_55                      Line_55                34                36           0.30104          0.047406           -0.3002         -0.050305
Line_56                      Line_56                34                37          -0.93929          0.013035           0.94162         -0.014017
Line_57                      Line_57                34                43          0.011772          0.017142         -0.011705         -0.057504
Line_58                      Line_58                35                36         0.0098048         -0.031428        -0.0098024          0.028865
Line_59                      Line_59                35                37           -0.3398         -0.058572           0.34116          0.051957
Line_60                      Line_60                38                37            2.4236           0.51322           -2.4236          -0.28369
Line_61                      Line_61                37                39            0.5464          0.004843          -0.53654         0.0019315
Line_62                      Line_62                37                40           0.43679         -0.060928          -0.42506          0.053971
Line_63                      Line_63                38                65           -1.8011           -0.2319             1.831          -0.49335
Line_64                      Line_64                39                40           0.26654          -0.11193          -0.26493           0.10264
Line_65                      Line_65                40                41           0.15142          0.012873          -0.15107         -0.023129
Line_66                      Line_66                40                42          -0.12143         -0.063468           0.12241          0.022143
Line_67                      Line_67                41                42          -0.21893         -0.076871            0.2212          0.051562
Line_68                      Line_68                42                49           -1.3036           0.10821            1.3677         0.0069835
Line_69                      Line_69                43                44          -0.16829         -0.012496           0.17012         -0.038519
Line_70                      Line_70                44                45          -0.33012          0.055417           0.33274         -0.066624
Line_71                      Line_71                45                46          -0.36389         -0.035852           0.36935          0.021447
Line_72                      Line_72                45                49          -0.49884          -0.02024           0.51634          0.022897
Line_73                      Line_73                46                47          -0.31057         -0.012706            0.3142        -0.0074686
Line_74                      Line_74                46                48          -0.14879         -0.057879           0.15017          0.013818
Line_75                      Line_75                47                49          -0.10118          -0.10588           0.10155          0.090352
Line_76                      Line_76                47                69          -0.55301           0.11335            0.5798         -0.099848
Line_77                      Line_77                48                49          -0.35017          0.032435           0.35231         -0.039577
Line_78                      Line_78                49                50           0.51757           0.13861           -0.5102           -0.1371
Line_79                      Line_79                49                51           0.64426           0.20882          -0.62268          -0.18195
Line_80                      Line_80                49                54           0.72007           0.24965          -0.69643          -0.30816
Line_81                      Line_81                49                66            -2.591          0.069818            2.6486           0.17112
Line_82                      Line_82                49                69          -0.45877           0.10327           0.48052          -0.11956
Line_83                      Line_83                50                57            0.3402            0.0971          -0.33412          -0.11218
Line_84                      Line_84                51                52            0.2802          0.064127          -0.27839         -0.071798
Line_85                      Line_85                51                58           0.17248          0.037821          -0.17161         -0.051956
Line_86                      Line_86                52                53          0.098389          0.021798         -0.097889         -0.056524
Line_87                      Line_87                53                54          -0.13211         -0.053476           0.13267          0.028059
Line_88                      Line_88                54                55          0.070575          0.014605         -0.070472          -0.03254
Line_89                      Line_89                54                56          0.095463          0.069202          -0.09542          -0.07572
Line_90                      Line_90                54                59          -0.25228         -0.089933           0.25601          0.050643
Line_91                      Line_91                55                56          -0.26894         -0.040326           0.26933           0.03816
Line_92                      Line_92                55                59          -0.29059         -0.098668           0.29529          0.067072
Line_93                      Line_93                56                57          -0.21213         -0.098997           0.21412          0.082181
Line_94                      Line_94                56                58         -0.051473         -0.043706          0.051613          0.021956
Line_95                      Line_95                56                59          -0.75031          -0.21879           0.76438            0.1214
Line_96                      Line_96                59                60          -0.44865          0.040315           0.45534         -0.046504
Line_97                      Line_97                59                61          -0.53263          0.055068           0.54241         -0.048392
Line_98                      Line_98                63                59            1.5544           0.23765           -1.5544          -0.14074
Line_99                      Line_99                60                61           -1.1266          0.085606              1.13         -0.082503
Line_100                    Line_100                60                62          -0.10871         -0.069102            0.1089          0.055442
Line_101                    Line_101                61                62            0.2421          -0.13591          -0.24147           0.12905
Line_102                    Line_102                64                61           0.31455           0.12094          -0.31455          -0.11788
Line_103                    Line_103                62                66          -0.38304          -0.16924            0.3911           0.14503
Line_104                    Line_104                62                67           -0.2544          -0.14093           0.25648           0.11883
Line_105                    Line_105                63                64           -1.5544          -0.23765            1.5586          0.073094
Line_106                    Line_106                64                65           -1.8732          -0.19403            1.8827         -0.080845
Line_107                    Line_107                65                66          0.053012           -1.2222         -0.053012            1.2771
Line_108                    Line_108                65                68           0.14332          -0.79485          -0.14299            0.1496
Line_109                    Line_109                66                67           0.54334           0.19119          -0.53648          -0.18883
Line_110                    Line_110                68                69           -1.2346          -0.59327            1.2346           0.66101
Line_111                    Line_111                68                81          -0.46446           -1.1562           0.46577           0.33034
Line_112                    Line_112                68               116            1.8421            1.5998             -1.84           -1.7421
Line_113                    Line_113                69                70            1.0858           0.16054           -1.0513          -0.13914
Line_114                    Line_114                69                75            1.1045           0.20405           -1.0556          -0.18122
Line_115                    Line_115                69                77           0.63701          0.064192          -0.62489           -0.1327
Line_116                    Line_116                70                71           0.16571          -0.12358          -0.16533           0.11658
Line_117                    Line_117                70                74           0.16367           0.12847          -0.16169          -0.15371
Line_118                    Line_118                70                75        0.00063545           0.09885       -3.7777e-05          -0.13115
Line_119                    Line_119                71                72            0.1052        -0.0092087          -0.10469         -0.031696
Line_120                    Line_120                71                73          0.060124          -0.10737             -0.06          0.096504
Line_121                    Line_121                74                75          -0.51831         -0.062217           0.52195          0.064665
Line_122                    Line_122                75                77          -0.34179         -0.097187           0.34965          0.074831
Line_123                    Line_123                75               118           0.40547           0.23489          -0.40203          -0.23447
Line_124                    Line_124                76                77          -0.60822           -0.2117           0.62859           0.24464
Line_125                    Line_125                76               118         -0.071781         -0.095807          0.072025          0.084474
Line_126                    Line_126                77                78           0.45888           0.06485          -0.45808         -0.074968
Line_127                    Line_127                77                80           -1.3944          -0.58867            1.4184           0.58921
Line_128                    Line_128                77                82         -0.027876           0.17473          0.029274          -0.25203
Line_129                    Line_129                78                79          -0.25192          -0.18503           0.25245           0.18081
Line_130                    Line_130                79                80          -0.64245           -0.2971           0.65004           0.31171
Line_131                    Line_131                81                80          -0.46577          -0.33034           0.46577           0.34175
Line_132                    Line_132                80                96           0.18861           0.21088          -0.18559          -0.24643
Line_133                    Line_133                80                97           0.26319           0.25774          -0.26077          -0.27212
Line_134                    Line_134                80                98           0.28894          0.083283          -0.28688          -0.10442
Line_135                    Line_135                80                99           0.19509          0.081787          -0.19297          -0.12955
Line_136                    Line_136                82                83          -0.47186           0.24374           0.47521          -0.26975
Line_137                    Line_137                82                96          -0.09741         -0.066268          0.097593          0.013506
Line_138                    Line_138                83                84          -0.24772           0.14678           0.25331          -0.15985
Line_139                    Line_139                83                85          -0.42749           0.11987           0.43643          -0.12285
Line_140                    Line_140                84                85          -0.36331          0.089846           0.36775         -0.092327
Line_141                    Line_141                85                86           0.17172         -0.073537          -0.17053           0.05091
Line_142                    Line_142                85                88          -0.50374          0.075938           0.50913         -0.075268
Line_143                    Line_143                85                89          -0.71217         0.0067174           0.72468          0.037338
Line_144                    Line_144                86                87         -0.039469          -0.15091              0.04           0.11022
Line_145                    Line_145                88                89          -0.98913         -0.024732            1.0031          0.076996
Line_146                    Line_146                89                90            1.6907          -0.10003           -1.6446           0.12687
Line_147                    Line_147                89                92            2.6515          -0.06586           -2.5965           0.23674
Line_148                    Line_148                90                91          0.014579          0.044101         -0.014496         -0.064484
Line_149                    Line_149                91                92         -0.085504         -0.066401          0.085903          0.036002
Line_150                    Line_150                92                93           0.57655          -0.11662           -0.5675           0.12508
Line_151                    Line_151                92                94           0.52201          -0.15218          -0.50778           0.15915
Line_152                    Line_152                92               100           0.31526          -0.18006          -0.30735           0.13831
Line_153                    Line_153                92               102            0.4468         -0.083927          -0.44422          0.081313
Line_154                    Line_154                93                94            0.4475          -0.19508          -0.44211           0.19449
Line_155                    Line_155                94                95           0.40863          0.090162          -0.40626         -0.093132
Line_156                    Line_156                94                96            0.1979         -0.098195          -0.19662          0.079749
Line_157                    Line_157                94               100          0.043358           -0.5056         -0.039207           0.45831
Line_158                    Line_158                95                96         -0.013744          -0.21687          0.014531           0.20504
Line_159                    Line_159                96                97          -0.10992          -0.20187           0.11077           0.18212
Line_160                    Line_160                98               100         -0.053115           0.02442          0.053315          -0.07307
Line_161                    Line_161                99               100          -0.22703          -0.04581           0.22796          0.027827
Line_162                    Line_162               100               101           -0.1677           0.22909           0.17008          -0.25135
Line_163                    Line_163               100               103            1.2175          -0.22149            -1.194           0.24358
Line_164                    Line_164               100               104           0.56185           0.10647          -0.54729         -0.094124
Line_165                    Line_165               100               106           0.60361           0.09476          -0.58136          -0.07123
Line_166                    Line_166               101               102          -0.39008           0.10135           0.39422          -0.11131
Line_167                    Line_167               103               104           0.32452           0.13867          -0.31855          -0.15832
Line_168                    Line_168               103               105           0.43351           0.12849          -0.42249           -0.1348
Line_169                    Line_169               103               110           0.60599          0.083489          -0.59149         -0.061524
Line_170                    Line_170               104               105           0.48584          0.026323          -0.48334         -0.026061
Line_171                    Line_171               105               106          0.088631          0.038799         -0.088482         -0.051517
Line_172                    Line_172               105               107           0.26755         -0.023749          -0.26347        -0.0055488
Line_173                    Line_173               105               108           0.23965          -0.11128          -0.23775          0.099223
Line_174                    Line_174               106               107           0.23984         -0.037253          -0.23653         0.0055053
Line_175                    Line_175               108               109           0.21775          -0.10922          -0.21709           0.10393
Line_176                    Line_176               109               110           0.13709          -0.13393          -0.13607           0.11772
Line_177                    Line_177               110               111          -0.35703         0.0095614              0.36         -0.018438
Line_178                    Line_178               110               112           0.69459          -0.30614             -0.68           0.28512
Line_179                    Line_179               114               115          0.013733         0.0021714         -0.013733        -0.0047131

OTHER ALGEBRAIC VARIABLES:
                                    

q PV 1                     -0.015123
q PV 2                       0.22035
q PV 3                       0.21319
q PV 4                      -0.32505
q PV 5                      -0.51042
q PV 6                       0.95978
q PV 7                       0.18257
q PV 8                       0.36507
q PV 9                      -0.14285
q PV 10                     -0.14901
q PV 11                       1.6633
q PV 12                      -1.3039
q PV 13                     0.039663
q PV 14                      0.35167
q PV 15                     -0.16305
q PV 16                      0.24799
q PV 17                      0.14856
q PV 18                      0.33602
q PV 19                      0.41191
q PV 20                     -0.05014
q PV 21                       1.1508
q PV 22                     0.033774
q PV 23                     0.048465
q PV 24                     -0.21906
q PV 25                       1.3238
q PV 26                     -0.38468
q PV 27                     0.014322
q PV 28                      -2.5913
q PV 29                       1.9644
q PV 31                     0.096565
q PV 32                     -0.11132
q PV 33                     0.096504
q PV 34                    -0.056057
q PV 35                     0.052492
q PV 36                      0.11768
q PV 37                       2.1364
q PV 38                    -0.056056
q PV 39                      0.11022
q PV 40                    -0.051558
q PV 41                      0.59097
q PV 42                     -0.13089
q PV 43                     -0.16004
q PV 44                     -0.17536
q PV 45                       0.9402
q PV 46                      0.75422
q PV 47                     0.023882
q PV 48                     -0.18335
q PV 49                     0.065578
q PV 50                     0.002808
q PV 51                    -0.018438
q PV 52                      0.41512
q PV 53                      0.20439
q PV 54                      -1.7421
q Slack 30                   0.87038
p Slack 30                    5.1222

